Version 4
SHEET 1 1768 680
WIRE 944 32 864 32
WIRE 1136 32 1024 32
WIRE 1408 48 1200 48
WIRE 1552 48 1488 48
WIRE 864 64 864 32
WIRE 1136 64 1072 64
WIRE 224 80 64 80
WIRE 416 80 224 80
WIRE 1552 128 1552 48
WIRE 64 144 64 80
WIRE 224 144 224 80
WIRE 416 144 416 80
WIRE 800 144 800 32
WIRE 1072 192 1072 64
WIRE 800 256 800 224
WIRE 800 256 720 256
WIRE 720 272 720 256
WIRE 64 288 64 224
WIRE 224 288 224 224
WIRE 224 288 64 288
WIRE 416 288 416 208
WIRE 416 288 224 288
WIRE 800 288 800 256
WIRE 1072 304 1072 272
WIRE 64 320 64 288
WIRE 800 400 800 368
WIRE 944 400 800 400
FLAG 1072 304 0
FLAG 864 64 0
FLAG 720 272 0
FLAG 1552 128 0
FLAG 1168 16 v15+
FLAG 800 32 v15+
FLAG 1168 80 v15-
FLAG 944 400 v15-
FLAG 64 320 0
SYMBOL voltage 1072 176 R0
WINDOW 123 0 0 Left 0
WINDOW 39 0 0 Left 0
SYMATTR InstName V-Triangular
SYMATTR Value PULSE(0 15 0 1m 1m 0 0 1000)
SYMBOL voltage 1040 32 R90
WINDOW 0 -32 56 VBottom 2
WINDOW 3 -4 56 VBottom 2
WINDOW 123 0 0 Left 0
WINDOW 39 0 0 Left 0
SYMATTR InstName Vin-pwm
SYMATTR Value 5
SYMBOL voltage 800 128 R0
WINDOW 123 0 0 Left 0
WINDOW 39 0 0 Left 0
SYMATTR InstName AmpOpS1
SYMATTR Value 15
SYMBOL voltage 800 272 R0
WINDOW 123 0 0 Left 0
WINDOW 39 0 0 Left 0
SYMATTR InstName AmpOpS2
SYMATTR Value 15
SYMBOL res 1504 32 R90
WINDOW 0 0 56 VBottom 2
WINDOW 3 32 56 VTop 2
SYMATTR InstName R1
SYMATTR Value 50
SYMBOL Opamps\\LT1001 1168 -16 R0
SYMATTR InstName U1
SYMBOL res 208 128 R0
SYMATTR InstName R2
SYMATTR Value 2000
SYMBOL cap 400 144 R0
SYMATTR InstName C1
SYMATTR Value 0.5
SYMBOL current 64 224 R180
WINDOW 0 24 80 Left 2
WINDOW 3 24 0 Left 2
WINDOW 123 0 0 Left 0
WINDOW 39 0 0 Left 0
SYMATTR InstName I1
SYMATTR Value PULSE(0 1m 1u 1u 1u 9000 9000 1)
TEXT 376 424 Left 2 !.tran 0 9000 0
